<?xml version="1.0" encoding="utf-8"?>
<!DOCTYPE population SYSTEM "http://www.matsim.org/files/dtd/population_v6.dtd">

<population>



<!-- ====================================================================== -->

	<person id="0">
		<attributes>
			<attribute name="age" class="java.lang.Integer">19</attribute>
			<attribute name="gender" class="java.lang.String">female</attribute>
			<attribute name="isWorker" class="java.lang.Boolean">true</attribute>
			<attribute name="typeOfPlan" class="java.lang.String">H</attribute>
		</attributes>
		<plan selected="yes">
			<activity type="home" x="437510.425506871" y="4431912.581745762" end_time="08:14:53" >
			</activity>
		</plan>

	</person>

<!-- ====================================================================== -->

	<person id="1">
		<attributes>
			<attribute name="age" class="java.lang.Integer">18</attribute>
			<attribute name="gender" class="java.lang.String">female</attribute>
			<attribute name="isWorker" class="java.lang.Boolean">false</attribute>
			<attribute name="typeOfPlan" class="java.lang.String">M</attribute>
		</attributes>
		<plan selected="yes">
			<activity type="home" x="438095.0688949422" y="4433004.91209184" end_time="07:43:29" >
			</activity>
			<leg mode="car">
			</leg>
			<activity type="work" x="441735.17953291436" y="4439464.279764479" end_time="16:23:20" >
			</activity>
			<leg mode="car">
			</leg>
			<activity type="home" x="438095.0688949422" y="4433004.91209184" >
			</activity>
		</plan>

	</person>

<!-- ====================================================================== -->

	<person id="10">
		<attributes>
			<attribute name="age" class="java.lang.Integer">65</attribute>
			<attribute name="gender" class="java.lang.String">male</attribute>
			<attribute name="isWorker" class="java.lang.Boolean">true</attribute>
			<attribute name="typeOfPlan" class="java.lang.String">M</attribute>
		</attributes>
		<plan selected="yes">
			<activity type="home" x="437033.18059236323" y="4430714.604939333" end_time="08:15:36" >
			</activity>
			<leg mode="car">
			</leg>
			<activity type="work" x="441735.17953291436" y="4439464.279764479" end_time="16:55:45" >
			</activity>
			<leg mode="car">
			</leg>
			<activity type="home" x="437033.18059236323" y="4430714.604939333" >
			</activity>
		</plan>

	</person>

<!-- ====================================================================== -->

	<person id="11">
		<attributes>
			<attribute name="age" class="java.lang.Integer">54</attribute>
			<attribute name="gender" class="java.lang.String">female</attribute>
			<attribute name="isWorker" class="java.lang.Boolean">false</attribute>
			<attribute name="typeOfPlan" class="java.lang.String">H</attribute>
		</attributes>
		<plan selected="yes">
			<activity type="home" x="437622.33151405177" y="4429702.849331384" end_time="08:26:18" >
			</activity>
		</plan>

	</person>

<!-- ====================================================================== -->

	<person id="12">
		<attributes>
			<attribute name="age" class="java.lang.Integer">45</attribute>
			<attribute name="gender" class="java.lang.String">female</attribute>
			<attribute name="isWorker" class="java.lang.Boolean">true</attribute>
			<attribute name="typeOfPlan" class="java.lang.String">M</attribute>
		</attributes>
		<plan selected="yes">
			<activity type="home" x="437294.44878956303" y="4433237.9838533355" end_time="07:25:59" >
			</activity>
			<leg mode="car">
			</leg>
			<activity type="work" x="441735.17953291436" y="4439464.279764479" end_time="16:22:11" >
			</activity>
			<leg mode="car">
			</leg>
			<activity type="other" x="438473.8082056557" y="4431682.319465345" end_time="18:19:34" >
			</activity>
			<leg mode="car">
			</leg>
			<activity type="home" x="437294.44878956303" y="4433237.9838533355" >
			</activity>
		</plan>

	</person>

<!-- ====================================================================== -->

	<person id="13">
		<attributes>
			<attribute name="age" class="java.lang.Integer">69</attribute>
			<attribute name="gender" class="java.lang.String">female</attribute>
			<attribute name="isWorker" class="java.lang.Boolean">false</attribute>
			<attribute name="typeOfPlan" class="java.lang.String">NM</attribute>
		</attributes>
		<plan selected="yes">
			<activity type="home" x="438924.7169250088" y="4430103.193398692" end_time="08:21:58" >
			</activity>
			<leg mode="car">
			</leg>
			<activity type="other" x="437501.4157765026" y="4430483.804140932" end_time="09:30:28" >
			</activity>
			<leg mode="car">
			</leg>
			<activity type="other" x="437724.713595717" y="4433005.047231058" end_time="11:27:38" >
			</activity>
			<leg mode="car">
			</leg>
			<activity type="other" x="436548.5699303259" y="4432641.004522887" end_time="11:43:08" >
			</activity>
			<leg mode="car">
			</leg>
			<activity type="home" x="438924.7169250088" y="4430103.193398692" >
			</activity>
		</plan>

	</person>

<!-- ====================================================================== -->

	<person id="14">
		<attributes>
			<attribute name="age" class="java.lang.Integer">49</attribute>
			<attribute name="gender" class="java.lang.String">male</attribute>
			<attribute name="isWorker" class="java.lang.Boolean">true</attribute>
			<attribute name="typeOfPlan" class="java.lang.String">M</attribute>
		</attributes>
		<plan selected="yes">
			<activity type="home" x="436302.8407408409" y="4433335.199835329" end_time="08:00:15" >
			</activity>
			<leg mode="car">
			</leg>
			<activity type="work" x="441735.17953291436" y="4439464.279764479" end_time="16:45:31" >
			</activity>
			<leg mode="car">
			</leg>
			<activity type="home" x="436302.8407408409" y="4433335.199835329" >
			</activity>
		</plan>

	</person>

<!-- ====================================================================== -->

	<person id="15">
		<attributes>
			<attribute name="age" class="java.lang.Integer">16</attribute>
			<attribute name="gender" class="java.lang.String">female</attribute>
			<attribute name="isWorker" class="java.lang.Boolean">false</attribute>
			<attribute name="typeOfPlan" class="java.lang.String">NM</attribute>
		</attributes>
		<plan selected="yes">
			<activity type="home" x="437259.2845970345" y="4433571.23220662" end_time="07:48:14" >
			</activity>
			<leg mode="car">
			</leg>
			<activity type="other" x="437600.218947807" y="4430760.833284288" end_time="09:30:53" >
			</activity>
			<leg mode="car">
			</leg>
			<activity type="home" x="437259.2845970345" y="4433571.23220662" >
			</activity>
		</plan>

	</person>

<!-- ====================================================================== -->

	<person id="16">
		<attributes>
			<attribute name="age" class="java.lang.Integer">19</attribute>
			<attribute name="gender" class="java.lang.String">male</attribute>
			<attribute name="isWorker" class="java.lang.Boolean">true</attribute>
			<attribute name="typeOfPlan" class="java.lang.String">NM</attribute>
		</attributes>
		<plan selected="yes">
			<activity type="home" x="437763.7448483679" y="4432390.809310773" end_time="08:50:19" >
			</activity>
			<leg mode="car">
			</leg>
			<activity type="other" x="434380.5311110378" y="4433072.176499709" end_time="11:20:37" >
			</activity>
			<leg mode="car">
			</leg>
			<activity type="other" x="437884.8235516696" y="4433496.046676579" end_time="12:30:26" >
			</activity>
			<leg mode="car">
			</leg>
			<activity type="home" x="437763.7448483679" y="4432390.809310773" >
			</activity>
		</plan>

	</person>

<!-- ====================================================================== -->

	<person id="17">
		<attributes>
			<attribute name="age" class="java.lang.Integer">22</attribute>
			<attribute name="gender" class="java.lang.String">male</attribute>
			<attribute name="isWorker" class="java.lang.Boolean">true</attribute>
			<attribute name="typeOfPlan" class="java.lang.String">NM</attribute>
		</attributes>
		<plan selected="yes">
			<activity type="home" x="439585.6988970365" y="4430721.805368479" end_time="08:45:38" >
			</activity>
			<leg mode="car">
			</leg>
			<activity type="other" x="438222.8399231205" y="4431540.092261107" end_time="11:02:05" >
			</activity>
			<leg mode="car">
			</leg>
			<activity type="other" x="435066.8284816508" y="4430774.626350985" end_time="12:52:34" >
			</activity>
			<leg mode="car">
			</leg>
			<activity type="home" x="439585.6988970365" y="4430721.805368479" >
			</activity>
		</plan>

	</person>

<!-- ====================================================================== -->

	<person id="18">
		<attributes>
			<attribute name="age" class="java.lang.Integer">22</attribute>
			<attribute name="gender" class="java.lang.String">male</attribute>
			<attribute name="isWorker" class="java.lang.Boolean">true</attribute>
			<attribute name="typeOfPlan" class="java.lang.String">M</attribute>
		</attributes>
		<plan selected="yes">
			<activity type="home" x="436458.5959542327" y="4434907.362960693" end_time="08:37:37" >
			</activity>
			<leg mode="car">
			</leg>
			<activity type="work" x="441735.17953291436" y="4439464.279764479" end_time="16:49:13" >
			</activity>
			<leg mode="car">
			</leg>
			<activity type="other" x="435740.62932471733" y="4430775.421233645" end_time="17:22:46" >
			</activity>
			<leg mode="car">
			</leg>
			<activity type="home" x="436458.5959542327" y="4434907.362960693" >
			</activity>
		</plan>

	</person>

<!-- ====================================================================== -->

	<person id="19">
		<attributes>
			<attribute name="age" class="java.lang.Integer">54</attribute>
			<attribute name="gender" class="java.lang.String">male</attribute>
			<attribute name="isWorker" class="java.lang.Boolean">true</attribute>
			<attribute name="typeOfPlan" class="java.lang.String">H</attribute>
		</attributes>
		<plan selected="yes">
			<activity type="home" x="435765.51854678727" y="4430599.718173754" end_time="08:13:32" >
			</activity>
		</plan>

	</person>

<!-- ====================================================================== -->

	<person id="2">
		<attributes>
			<attribute name="age" class="java.lang.Integer">49</attribute>
			<attribute name="gender" class="java.lang.String">male</attribute>
			<attribute name="isWorker" class="java.lang.Boolean">true</attribute>
			<attribute name="typeOfPlan" class="java.lang.String">NM</attribute>
		</attributes>
		<plan selected="yes">
			<activity type="home" x="437621.51208611694" y="4431240.493734652" end_time="07:32:36" >
			</activity>
			<leg mode="car">
			</leg>
			<activity type="other" x="436626.8738085408" y="4432413.043183413" end_time="08:32:48" >
			</activity>
			<leg mode="car">
			</leg>
			<activity type="other" x="437807.22837663884" y="4433516.63089386" end_time="09:23:11" >
			</activity>
			<leg mode="car">
			</leg>
			<activity type="home" x="437621.51208611694" y="4431240.493734652" >
			</activity>
		</plan>

	</person>

<!-- ====================================================================== -->

	<person id="20">
		<attributes>
			<attribute name="age" class="java.lang.Integer">68</attribute>
			<attribute name="gender" class="java.lang.String">male</attribute>
			<attribute name="isWorker" class="java.lang.Boolean">false</attribute>
			<attribute name="typeOfPlan" class="java.lang.String">NM</attribute>
		</attributes>
		<plan selected="yes">
			<activity type="home" x="438838.4339404307" y="4434325.041172408" end_time="07:26:05" >
			</activity>
			<leg mode="car">
			</leg>
			<activity type="other" x="435236.5165550571" y="4431419.793631099" end_time="10:18:26" >
			</activity>
			<leg mode="car">
			</leg>
			<activity type="other" x="438458.5573566844" y="4434443.693890078" end_time="11:14:58" >
			</activity>
			<leg mode="car">
			</leg>
			<activity type="home" x="438838.4339404307" y="4434325.041172408" >
			</activity>
		</plan>

	</person>

<!-- ====================================================================== -->

	<person id="21">
		<attributes>
			<attribute name="age" class="java.lang.Integer">41</attribute>
			<attribute name="gender" class="java.lang.String">female</attribute>
			<attribute name="isWorker" class="java.lang.Boolean">true</attribute>
			<attribute name="typeOfPlan" class="java.lang.String">M</attribute>
		</attributes>
		<plan selected="yes">
			<activity type="home" x="437024.3016758742" y="4431810.444362885" end_time="08:27:56" >
			</activity>
			<leg mode="car">
			</leg>
			<activity type="work" x="441735.17953291436" y="4439464.279764479" end_time="16:31:57" >
			</activity>
			<leg mode="car">
			</leg>
			<activity type="other" x="436257.99990237853" y="4431761.09517456" end_time="17:01:04" >
			</activity>
			<leg mode="car">
			</leg>
			<activity type="home" x="437024.3016758742" y="4431810.444362885" >
			</activity>
		</plan>

	</person>

<!-- ====================================================================== -->

	<person id="22">
		<attributes>
			<attribute name="age" class="java.lang.Integer">74</attribute>
			<attribute name="gender" class="java.lang.String">female</attribute>
			<attribute name="isWorker" class="java.lang.Boolean">false</attribute>
			<attribute name="typeOfPlan" class="java.lang.String">NM</attribute>
		</attributes>
		<plan selected="yes">
			<activity type="home" x="437090.2576984225" y="4432966.152848026" end_time="07:33:51" >
			</activity>
			<leg mode="car">
			</leg>
			<activity type="other" x="437541.5072485148" y="4433557.439798936" end_time="10:15:39" >
			</activity>
			<leg mode="car">
			</leg>
			<activity type="other" x="436214.3800571606" y="4432424.41383447" end_time="12:15:32" >
			</activity>
			<leg mode="car">
			</leg>
			<activity type="other" x="438456.3884463635" y="4432321.528865539" end_time="12:50:20" >
			</activity>
			<leg mode="car">
			</leg>
			<activity type="home" x="437090.2576984225" y="4432966.152848026" >
			</activity>
		</plan>

	</person>

<!-- ====================================================================== -->

	<person id="23">
		<attributes>
			<attribute name="age" class="java.lang.Integer">49</attribute>
			<attribute name="gender" class="java.lang.String">male</attribute>
			<attribute name="isWorker" class="java.lang.Boolean">true</attribute>
			<attribute name="typeOfPlan" class="java.lang.String">M</attribute>
		</attributes>
		<plan selected="yes">
			<activity type="home" x="435344.82861568505" y="4429246.401643175" end_time="07:45:41" >
			</activity>
			<leg mode="car">
			</leg>
			<activity type="work" x="441735.17953291436" y="4439464.279764479" end_time="17:51:44" >
			</activity>
			<leg mode="car">
			</leg>
			<activity type="home" x="435344.82861568505" y="4429246.401643175" >
			</activity>
		</plan>

	</person>

<!-- ====================================================================== -->

	<person id="24">
		<attributes>
			<attribute name="age" class="java.lang.Integer">54</attribute>
			<attribute name="gender" class="java.lang.String">female</attribute>
			<attribute name="isWorker" class="java.lang.Boolean">true</attribute>
			<attribute name="typeOfPlan" class="java.lang.String">M</attribute>
		</attributes>
		<plan selected="yes">
			<activity type="home" x="438463.59862910624" y="4430072.291861017" end_time="08:26:42" >
			</activity>
			<leg mode="car">
			</leg>
			<activity type="work" x="441735.17953291436" y="4439464.279764479" end_time="17:10:30" >
			</activity>
			<leg mode="car">
			</leg>
			<activity type="other" x="436788.2252299704" y="4429774.368355092" end_time="18:31:34" >
			</activity>
			<leg mode="car">
			</leg>
			<activity type="home" x="438463.59862910624" y="4430072.291861017" >
			</activity>
		</plan>

	</person>

<!-- ====================================================================== -->

	<person id="25">
		<attributes>
			<attribute name="age" class="java.lang.Integer">74</attribute>
			<attribute name="gender" class="java.lang.String">male</attribute>
			<attribute name="isWorker" class="java.lang.Boolean">false</attribute>
			<attribute name="typeOfPlan" class="java.lang.String">NM</attribute>
		</attributes>
		<plan selected="yes">
			<activity type="home" x="435471.0380684986" y="4431534.069461491" end_time="07:29:06" >
			</activity>
			<leg mode="car">
			</leg>
			<activity type="other" x="438556.16210860375" y="4430058.098279075" end_time="10:22:32" >
			</activity>
			<leg mode="car">
			</leg>
			<activity type="home" x="435471.0380684986" y="4431534.069461491" >
			</activity>
		</plan>

	</person>

<!-- ====================================================================== -->

	<person id="26">
		<attributes>
			<attribute name="age" class="java.lang.Integer">61</attribute>
			<attribute name="gender" class="java.lang.String">female</attribute>
			<attribute name="isWorker" class="java.lang.Boolean">true</attribute>
			<attribute name="typeOfPlan" class="java.lang.String">NM</attribute>
		</attributes>
		<plan selected="yes">
			<activity type="home" x="437517.7558530045" y="4430963.964763615" end_time="07:59:27" >
			</activity>
			<leg mode="car">
			</leg>
			<activity type="other" x="437378.480919313" y="4432340.942561244" end_time="10:05:57" >
			</activity>
			<leg mode="car">
			</leg>
			<activity type="other" x="437632.6288418131" y="4431076.6026092265" end_time="10:10:31" >
			</activity>
			<leg mode="car">
			</leg>
			<activity type="other" x="436692.384636309" y="4432536.578298424" end_time="11:21:47" >
			</activity>
			<leg mode="car">
			</leg>
			<activity type="home" x="437517.7558530045" y="4430963.964763615" >
			</activity>
		</plan>

	</person>

<!-- ====================================================================== -->

	<person id="27">
		<attributes>
			<attribute name="age" class="java.lang.Integer">39</attribute>
			<attribute name="gender" class="java.lang.String">male</attribute>
			<attribute name="isWorker" class="java.lang.Boolean">true</attribute>
			<attribute name="typeOfPlan" class="java.lang.String">M</attribute>
		</attributes>
		<plan selected="yes">
			<activity type="home" x="436169.67912344955" y="4433237.625179247" end_time="08:09:17" >
			</activity>
			<leg mode="car">
			</leg>
			<activity type="work" x="441735.17953291436" y="4439464.279764479" end_time="17:51:25" >
			</activity>
			<leg mode="car">
			</leg>
			<activity type="other" x="435062.75852559664" y="4432060.936722155" end_time="18:43:30" >
			</activity>
			<leg mode="car">
			</leg>
			<activity type="home" x="436169.67912344955" y="4433237.625179247" >
			</activity>
		</plan>

	</person>

<!-- ====================================================================== -->

	<person id="28">
		<attributes>
			<attribute name="age" class="java.lang.Integer">67</attribute>
			<attribute name="gender" class="java.lang.String">female</attribute>
			<attribute name="isWorker" class="java.lang.Boolean">false</attribute>
			<attribute name="typeOfPlan" class="java.lang.String">M</attribute>
		</attributes>
		<plan selected="yes">
			<activity type="home" x="437988.0902760614" y="4434062.527676761" end_time="07:12:54" >
			</activity>
			<leg mode="car">
			</leg>
			<activity type="work" x="441735.17953291436" y="4439464.279764479" end_time="17:46:22" >
			</activity>
			<leg mode="car">
			</leg>
			<activity type="home" x="437988.0902760614" y="4434062.527676761" >
			</activity>
		</plan>

	</person>

<!-- ====================================================================== -->

	<person id="29">
		<attributes>
			<attribute name="age" class="java.lang.Integer">21</attribute>
			<attribute name="gender" class="java.lang.String">male</attribute>
			<attribute name="isWorker" class="java.lang.Boolean">true</attribute>
			<attribute name="typeOfPlan" class="java.lang.String">M</attribute>
		</attributes>
		<plan selected="yes">
			<activity type="home" x="437259.1682407437" y="4432774.653810406" end_time="08:28:14" >
			</activity>
			<leg mode="car">
			</leg>
			<activity type="work" x="441735.17953291436" y="4439464.279764479" end_time="17:21:50" >
			</activity>
			<leg mode="car">
			</leg>
			<activity type="other" x="437664.4943025486" y="4430445.704781214" end_time="18:35:58" >
			</activity>
			<leg mode="car">
			</leg>
			<activity type="home" x="437259.1682407437" y="4432774.653810406" >
			</activity>
		</plan>

	</person>

<!-- ====================================================================== -->

	<person id="3">
		<attributes>
			<attribute name="age" class="java.lang.Integer">51</attribute>
			<attribute name="gender" class="java.lang.String">male</attribute>
			<attribute name="isWorker" class="java.lang.Boolean">false</attribute>
			<attribute name="typeOfPlan" class="java.lang.String">NM</attribute>
		</attributes>
		<plan selected="yes">
			<activity type="home" x="436867.71749026165" y="4431666.979262699" end_time="07:52:38" >
			</activity>
			<leg mode="car">
			</leg>
			<activity type="other" x="436230.44287002465" y="4431847.198119703" end_time="08:59:37" >
			</activity>
			<leg mode="car">
			</leg>
			<activity type="other" x="435610.17966001236" y="4432324.39170901" end_time="10:34:56" >
			</activity>
			<leg mode="car">
			</leg>
			<activity type="other" x="438823.3530760063" y="4430150.607069516" end_time="10:59:09" >
			</activity>
			<leg mode="car">
			</leg>
			<activity type="home" x="436867.71749026165" y="4431666.979262699" >
			</activity>
		</plan>

	</person>

<!-- ====================================================================== -->

	<person id="30">
		<attributes>
			<attribute name="age" class="java.lang.Integer">49</attribute>
			<attribute name="gender" class="java.lang.String">female</attribute>
			<attribute name="isWorker" class="java.lang.Boolean">true</attribute>
			<attribute name="typeOfPlan" class="java.lang.String">M</attribute>
		</attributes>
		<plan selected="yes">
			<activity type="home" x="439383.7349178378" y="4433906.261188397" end_time="07:10:57" >
			</activity>
			<leg mode="car">
			</leg>
			<activity type="work" x="441735.17953291436" y="4439464.279764479" end_time="16:23:32" >
			</activity>
			<leg mode="car">
			</leg>
			<activity type="home" x="439383.7349178378" y="4433906.261188397" >
			</activity>
		</plan>

	</person>

<!-- ====================================================================== -->

	<person id="31">
		<attributes>
			<attribute name="age" class="java.lang.Integer">51</attribute>
			<attribute name="gender" class="java.lang.String">male</attribute>
			<attribute name="isWorker" class="java.lang.Boolean">true</attribute>
			<attribute name="typeOfPlan" class="java.lang.String">M</attribute>
		</attributes>
		<plan selected="yes">
			<activity type="home" x="437416.4445014885" y="4432608.72738208" end_time="07:28:36" >
			</activity>
			<leg mode="car">
			</leg>
			<activity type="work" x="441735.17953291436" y="4439464.279764479" end_time="16:02:50" >
			</activity>
			<leg mode="car">
			</leg>
			<activity type="home" x="437416.4445014885" y="4432608.72738208" >
			</activity>
		</plan>

	</person>

<!-- ====================================================================== -->

	<person id="32">
		<attributes>
			<attribute name="age" class="java.lang.Integer">30</attribute>
			<attribute name="gender" class="java.lang.String">female</attribute>
			<attribute name="isWorker" class="java.lang.Boolean">false</attribute>
			<attribute name="typeOfPlan" class="java.lang.String">NM</attribute>
		</attributes>
		<plan selected="yes">
			<activity type="home" x="436682.216895742" y="4431554.830042827" end_time="07:18:35" >
			</activity>
			<leg mode="car">
			</leg>
			<activity type="other" x="437528.99281615077" y="4431527.50114526" end_time="09:14:10" >
			</activity>
			<leg mode="car">
			</leg>
			<activity type="home" x="436682.216895742" y="4431554.830042827" >
			</activity>
		</plan>

	</person>

<!-- ====================================================================== -->

	<person id="33">
		<attributes>
			<attribute name="age" class="java.lang.Integer">54</attribute>
			<attribute name="gender" class="java.lang.String">male</attribute>
			<attribute name="isWorker" class="java.lang.Boolean">true</attribute>
			<attribute name="typeOfPlan" class="java.lang.String">M</attribute>
		</attributes>
		<plan selected="yes">
			<activity type="home" x="436231.823569905" y="4432237.383540539" end_time="08:43:19" >
			</activity>
			<leg mode="car">
			</leg>
			<activity type="work" x="441735.17953291436" y="4439464.279764479" end_time="17:05:28" >
			</activity>
			<leg mode="car">
			</leg>
			<activity type="other" x="437481.9183503882" y="4430823.060236388" end_time="18:31:58" >
			</activity>
			<leg mode="car">
			</leg>
			<activity type="home" x="436231.823569905" y="4432237.383540539" >
			</activity>
		</plan>

	</person>

<!-- ====================================================================== -->

	<person id="34">
		<attributes>
			<attribute name="age" class="java.lang.Integer">33</attribute>
			<attribute name="gender" class="java.lang.String">female</attribute>
			<attribute name="isWorker" class="java.lang.Boolean">false</attribute>
			<attribute name="typeOfPlan" class="java.lang.String">NM</attribute>
		</attributes>
		<plan selected="yes">
			<activity type="home" x="435551.36726610985" y="4430934.625050865" end_time="07:36:31" >
			</activity>
			<leg mode="car">
			</leg>
			<activity type="other" x="438392.5845425484" y="4431853.9707246255" end_time="09:30:24" >
			</activity>
			<leg mode="car">
			</leg>
			<activity type="home" x="435551.36726610985" y="4430934.625050865" >
			</activity>
		</plan>

	</person>

<!-- ====================================================================== -->

	<person id="35">
		<attributes>
			<attribute name="age" class="java.lang.Integer">74</attribute>
			<attribute name="gender" class="java.lang.String">male</attribute>
			<attribute name="isWorker" class="java.lang.Boolean">false</attribute>
			<attribute name="typeOfPlan" class="java.lang.String">NM</attribute>
		</attributes>
		<plan selected="yes">
			<activity type="home" x="436632.93722591345" y="4430764.528200885" end_time="08:31:24" >
			</activity>
			<leg mode="car">
			</leg>
			<activity type="other" x="437389.67890528013" y="4432131.003551432" end_time="11:28:10" >
			</activity>
			<leg mode="car">
			</leg>
			<activity type="other" x="437168.93804613093" y="4432310.531773068" end_time="12:25:51" >
			</activity>
			<leg mode="car">
			</leg>
			<activity type="home" x="436632.93722591345" y="4430764.528200885" >
			</activity>
		</plan>

	</person>

<!-- ====================================================================== -->

	<person id="36">
		<attributes>
			<attribute name="age" class="java.lang.Integer">39</attribute>
			<attribute name="gender" class="java.lang.String">female</attribute>
			<attribute name="isWorker" class="java.lang.Boolean">false</attribute>
			<attribute name="typeOfPlan" class="java.lang.String">M</attribute>
		</attributes>
		<plan selected="yes">
			<activity type="home" x="437563.07270860707" y="4432170.101173717" end_time="08:31:01" >
			</activity>
			<leg mode="car">
			</leg>
			<activity type="work" x="441735.17953291436" y="4439464.279764479" end_time="16:23:09" >
			</activity>
			<leg mode="car">
			</leg>
			<activity type="home" x="437563.07270860707" y="4432170.101173717" >
			</activity>
		</plan>

	</person>

<!-- ====================================================================== -->

	<person id="37">
		<attributes>
			<attribute name="age" class="java.lang.Integer">47</attribute>
			<attribute name="gender" class="java.lang.String">female</attribute>
			<attribute name="isWorker" class="java.lang.Boolean">true</attribute>
			<attribute name="typeOfPlan" class="java.lang.String">NM</attribute>
		</attributes>
		<plan selected="yes">
			<activity type="home" x="436241.1062780741" y="4431624.542829985" end_time="07:35:12" >
			</activity>
			<leg mode="car">
			</leg>
			<activity type="other" x="438349.32072452165" y="4430286.151200049" end_time="09:27:05" >
			</activity>
			<leg mode="car">
			</leg>
			<activity type="home" x="436241.1062780741" y="4431624.542829985" >
			</activity>
		</plan>

	</person>

<!-- ====================================================================== -->

	<person id="38">
		<attributes>
			<attribute name="age" class="java.lang.Integer">63</attribute>
			<attribute name="gender" class="java.lang.String">female</attribute>
			<attribute name="isWorker" class="java.lang.Boolean">true</attribute>
			<attribute name="typeOfPlan" class="java.lang.String">M</attribute>
		</attributes>
		<plan selected="yes">
			<activity type="home" x="434623.52462928" y="4429202.237517526" end_time="07:04:16" >
			</activity>
			<leg mode="car">
			</leg>
			<activity type="work" x="441735.17953291436" y="4439464.279764479" end_time="17:57:39" >
			</activity>
			<leg mode="car">
			</leg>
			<activity type="home" x="434623.52462928" y="4429202.237517526" >
			</activity>
		</plan>

	</person>

<!-- ====================================================================== -->

	<person id="39">
		<attributes>
			<attribute name="age" class="java.lang.Integer">61</attribute>
			<attribute name="gender" class="java.lang.String">female</attribute>
			<attribute name="isWorker" class="java.lang.Boolean">true</attribute>
			<attribute name="typeOfPlan" class="java.lang.String">M</attribute>
		</attributes>
		<plan selected="yes">
			<activity type="home" x="438167.4508612787" y="4430954.785844185" end_time="07:40:18" >
			</activity>
			<leg mode="car">
			</leg>
			<activity type="work" x="441735.17953291436" y="4439464.279764479" end_time="16:51:48" >
			</activity>
			<leg mode="car">
			</leg>
			<activity type="other" x="436856.2198784746" y="4430110.299001416" end_time="17:26:19" >
			</activity>
			<leg mode="car">
			</leg>